MODEL 1
REMARK VINA RESULT:    -4.145      0.000      0.000
REMARK INTER + INTRA:          -5.597
REMARK INTER:                  -4.993
REMARK INTRA:                  -0.604
REMARK UNBOUND:                -0.604
REMARK SMILES CC(=O)Oc1ccccc1C(=O)O
REMARK SMILES IDX 5 1 10 2 6 3 9 4 7 5 8 6 4 7 2 8 3 9 1 10 11 11 12 12 13 13
REMARK H PARENT 13 14
ROOT
ATOM      1  C   UNL     1      34.524  40.110  20.700  1.00  0.00     0.145 A 
ATOM      2  C   UNL     1      33.459  39.501  21.413  1.00  0.00     0.102 A 
ATOM      3  C   UNL     1      34.795  39.714  19.384  1.00  0.00     0.048 A 
ATOM      4  C   UNL     1      32.737  38.461  20.799  1.00  0.00     0.019 A 
ATOM      5  C   UNL     1      34.058  38.692  18.785  1.00  0.00     0.004 A 
ATOM      6  C   UNL     1      33.038  38.059  19.494  1.00  0.00     0.001 A 
ENDROOT
BRANCH   1   7
ATOM      7  O   UNL     1      35.330  41.101  21.270  1.00  0.00    -0.426 OA
BRANCH   7   8
ATOM      8  C   UNL     1      36.605  40.842  21.784  1.00  0.00     0.308 C 
ATOM      9  O   UNL     1      37.639  41.156  21.134  1.00  0.00    -0.252 OA
ATOM     10  C   UNL     1      36.742  40.155  23.100  1.00  0.00     0.139 C 
ENDBRANCH   7   8
ENDBRANCH   1   7
BRANCH   2  11
ATOM     11  C   UNL     1      33.052  39.955  22.763  1.00  0.00     0.339 C 
ATOM     12  O   UNL     1      32.779  39.120  23.669  1.00  0.00    -0.246 OA
BRANCH  11  13
ATOM     13  O   UNL     1      32.999  41.315  23.056  1.00  0.00    -0.478 OA
ATOM     14  H   UNL     1      33.550  41.706  23.812  1.00  0.00     0.297 HD
ENDBRANCH  11  13
ENDBRANCH   2  11
TORSDOF 4
ENDMDL
MODEL 2
REMARK VINA RESULT:    -4.138      2.838      4.821
REMARK INTER + INTRA:          -5.589
REMARK INTER:                  -4.904
REMARK INTRA:                  -0.685
REMARK UNBOUND:                -0.604
REMARK SMILES CC(=O)Oc1ccccc1C(=O)O
REMARK SMILES IDX 5 1 10 2 6 3 9 4 7 5 8 6 4 7 2 8 3 9 1 10 11 11 12 12 13 13
REMARK H PARENT 13 14
ROOT
ATOM      1  C   UNL     1      35.163  39.069  18.299  1.00  0.00     0.145 A 
ATOM      2  C   UNL     1      35.397  40.053  19.294  1.00  0.00     0.102 A 
ATOM      3  C   UNL     1      34.078  38.193  18.427  1.00  0.00     0.048 A 
ATOM      4  C   UNL     1      34.563  40.083  20.427  1.00  0.00     0.019 A 
ATOM      5  C   UNL     1      33.252  38.248  19.551  1.00  0.00     0.004 A 
ATOM      6  C   UNL     1      33.500  39.185  20.555  1.00  0.00     0.001 A 
ENDROOT
BRANCH   1   7
ATOM      7  O   UNL     1      35.991  38.933  17.179  1.00  0.00    -0.426 OA
BRANCH   7   8
ATOM      8  C   UNL     1      35.615  39.356  15.900  1.00  0.00     0.308 C 
ATOM      9  O   UNL     1      35.075  40.482  15.725  1.00  0.00    -0.252 OA
ATOM     10  C   UNL     1      35.825  38.450  14.735  1.00  0.00     0.139 C 
ENDBRANCH   7   8
ENDBRANCH   1   7
BRANCH   2  11
ATOM     11  C   UNL     1      36.457  41.079  19.157  1.00  0.00     0.339 C 
ATOM     12  O   UNL     1      37.205  41.365  20.132  1.00  0.00    -0.246 OA
BRANCH  11  13
ATOM     13  O   UNL     1      36.661  41.713  17.935  1.00  0.00    -0.478 OA
ATOM     14  H   UNL     1      37.596  41.931  17.611  1.00  0.00     0.297 HD
ENDBRANCH  11  13
ENDBRANCH   2  11
TORSDOF 4
ENDMDL
MODEL 3
REMARK VINA RESULT:    -4.072     15.662     17.290
REMARK INTER + INTRA:          -5.509
REMARK INTER:                  -4.801
REMARK INTRA:                  -0.708
REMARK UNBOUND:                -0.604
REMARK SMILES CC(=O)Oc1ccccc1C(=O)O
REMARK SMILES IDX 5 1 10 2 6 3 9 4 7 5 8 6 4 7 2 8 3 9 1 10 11 11 12 12 13 13
REMARK H PARENT 13 14
ROOT
ATOM      1  C   UNL     1      23.591  37.839   8.277  1.00  0.00     0.145 A 
ATOM      2  C   UNL     1      24.175  38.459   7.142  1.00  0.00     0.102 A 
ATOM      3  C   UNL     1      22.445  37.048   8.125  1.00  0.00     0.048 A 
ATOM      4  C   UNL     1      23.545  38.317   5.891  1.00  0.00     0.019 A 
ATOM      5  C   UNL     1      21.843  36.905   6.874  1.00  0.00     0.004 A 
ATOM      6  C   UNL     1      22.386  37.547   5.760  1.00  0.00     0.001 A 
ENDROOT
BRANCH   1   7
ATOM      7  O   UNL     1      24.120  37.992   9.562  1.00  0.00    -0.426 OA
BRANCH   7   8
ATOM      8  C   UNL     1      23.600  38.894  10.496  1.00  0.00     0.308 C 
ATOM      9  O   UNL     1      23.992  40.092  10.525  1.00  0.00    -0.252 OA
ATOM     10  C   UNL     1      22.594  38.424  11.491  1.00  0.00     0.139 C 
ENDBRANCH   7   8
ENDBRANCH   1   7
BRANCH   2  11
ATOM     11  C   UNL     1      25.449  39.211   7.220  1.00  0.00     0.339 C 
ATOM     12  O   UNL     1      26.448  38.859   6.536  1.00  0.00    -0.246 OA
BRANCH  11  13
ATOM     13  O   UNL     1      25.543  40.341   8.029  1.00  0.00    -0.478 OA
ATOM     14  H   UNL     1      26.357  40.498   8.611  1.00  0.00     0.297 HD
ENDBRANCH  11  13
ENDBRANCH   2  11
TORSDOF 4
ENDMDL
MODEL 4
REMARK VINA RESULT:    -4.034      1.618      2.638
REMARK INTER + INTRA:          -5.463
REMARK INTER:                  -4.742
REMARK INTRA:                  -0.721
REMARK UNBOUND:                -0.604
REMARK SMILES CC(=O)Oc1ccccc1C(=O)O
REMARK SMILES IDX 5 1 10 2 6 3 9 4 7 5 8 6 4 7 2 8 3 9 1 10 11 11 12 12 13 13
REMARK H PARENT 13 14
ROOT
ATOM      1  C   UNL     1      34.729  39.792  19.456  1.00  0.00     0.145 A 
ATOM      2  C   UNL     1      34.224  40.120  20.740  1.00  0.00     0.102 A 
ATOM      3  C   UNL     1      34.192  38.706  18.754  1.00  0.00     0.048 A 
ATOM      4  C   UNL     1      33.233  39.300  21.310  1.00  0.00     0.019 A 
ATOM      5  C   UNL     1      33.197  37.912  19.328  1.00  0.00     0.004 A 
ATOM      6  C   UNL     1      32.726  38.202  20.608  1.00  0.00     0.001 A 
ENDROOT
BRANCH   1   7
ATOM      7  O   UNL     1      35.762  40.519  18.855  1.00  0.00    -0.426 OA
BRANCH   7   8
ATOM      8  C   UNL     1      37.080  40.055  18.789  1.00  0.00     0.308 C 
ATOM      9  O   UNL     1      37.862  40.191  19.768  1.00  0.00    -0.252 OA
ATOM     10  C   UNL     1      37.574  39.422  17.533  1.00  0.00     0.139 C 
ENDBRANCH   7   8
ENDBRANCH   1   7
BRANCH   2  11
ATOM     11  C   UNL     1      34.671  41.323  21.481  1.00  0.00     0.339 C 
ATOM     12  O   UNL     1      33.833  42.094  22.024  1.00  0.00    -0.246 OA
BRANCH  11  13
ATOM     13  O   UNL     1      36.031  41.594  21.616  1.00  0.00    -0.478 OA
ATOM     14  H   UNL     1      36.539  41.306  22.444  1.00  0.00     0.297 HD
ENDBRANCH  11  13
ENDBRANCH   2  11
TORSDOF 4
ENDMDL
MODEL 5
REMARK VINA RESULT:    -4.017      1.466      3.371
REMARK INTER + INTRA:          -5.443
REMARK INTER:                  -4.833
REMARK INTRA:                  -0.609
REMARK UNBOUND:                -0.604
REMARK SMILES CC(=O)Oc1ccccc1C(=O)O
REMARK SMILES IDX 5 1 10 2 6 3 9 4 7 5 8 6 4 7 2 8 3 9 1 10 11 11 12 12 13 13
REMARK H PARENT 13 14
ROOT
ATOM      1  C   UNL     1      34.333  40.050  20.597  1.00  0.00     0.145 A 
ATOM      2  C   UNL     1      34.769  39.636  19.313  1.00  0.00     0.102 A 
ATOM      3  C   UNL     1      33.318  39.339  21.250  1.00  0.00     0.048 A 
ATOM      4  C   UNL     1      34.121  38.552  18.692  1.00  0.00     0.019 A 
ATOM      5  C   UNL     1      32.697  38.256  20.626  1.00  0.00     0.004 A 
ATOM      6  C   UNL     1      33.091  37.869  19.345  1.00  0.00     0.001 A 
ENDROOT
BRANCH   1   7
ATOM      7  O   UNL     1      34.881  41.162  21.246  1.00  0.00    -0.426 OA
BRANCH   7   8
ATOM      8  C   UNL     1      35.363  41.115  22.559  1.00  0.00     0.308 C 
ATOM      9  O   UNL     1      34.796  41.766  23.478  1.00  0.00    -0.252 OA
ATOM     10  C   UNL     1      36.582  40.313  22.866  1.00  0.00     0.139 C 
ENDBRANCH   7   8
ENDBRANCH   1   7
BRANCH   2  11
ATOM     11  C   UNL     1      35.913  40.277  18.622  1.00  0.00     0.339 C 
ATOM     12  O   UNL     1      35.828  40.610  17.409  1.00  0.00    -0.246 OA
BRANCH  11  13
ATOM     13  O   UNL     1      37.086  40.549  19.321  1.00  0.00    -0.478 OA
ATOM     14  H   UNL     1      37.126  40.451  20.329  1.00  0.00     0.297 HD
ENDBRANCH  11  13
ENDBRANCH   2  11
TORSDOF 4
ENDMDL
MODEL 6
REMARK VINA RESULT:    -3.767     16.808     18.278
REMARK INTER + INTRA:          -5.141
REMARK INTER:                  -4.421
REMARK INTRA:                  -0.720
REMARK UNBOUND:                -0.604
REMARK SMILES CC(=O)Oc1ccccc1C(=O)O
REMARK SMILES IDX 5 1 10 2 6 3 9 4 7 5 8 6 4 7 2 8 3 9 1 10 11 11 12 12 13 13
REMARK H PARENT 13 14
ROOT
ATOM      1  C   UNL     1      23.408  37.657   7.639  1.00  0.00     0.145 A 
ATOM      2  C   UNL     1      22.362  37.210   6.791  1.00  0.00     0.102 A 
ATOM      3  C   UNL     1      24.429  38.464   7.118  1.00  0.00     0.048 A 
ATOM      4  C   UNL     1      22.410  37.537   5.423  1.00  0.00     0.019 A 
ATOM      5  C   UNL     1      24.451  38.791   5.761  1.00  0.00     0.004 A 
ATOM      6  C   UNL     1      23.450  38.319   4.913  1.00  0.00     0.001 A 
ENDROOT
BRANCH   1   7
ATOM      7  O   UNL     1      23.466  37.315   8.994  1.00  0.00    -0.426 OA
BRANCH   7   8
ATOM      8  C   UNL     1      23.168  38.219  10.020  1.00  0.00     0.308 C 
ATOM      9  O   UNL     1      22.095  38.881  10.005  1.00  0.00    -0.252 OA
ATOM     10  C   UNL     1      24.147  38.425  11.124  1.00  0.00     0.139 C 
ENDBRANCH   7   8
ENDBRANCH   1   7
BRANCH   2  11
ATOM     11  C   UNL     1      21.198  36.453   7.306  1.00  0.00     0.339 C 
ATOM     12  O   UNL     1      20.831  35.381   6.752  1.00  0.00    -0.246 OA
BRANCH  11  13
ATOM     13  O   UNL     1      20.516  36.902   8.435  1.00  0.00    -0.478 OA
ATOM     14  H   UNL     1      20.973  37.496   9.116  1.00  0.00     0.297 HD
ENDBRANCH  11  13
ENDBRANCH   2  11
TORSDOF 4
ENDMDL
MODEL 7
REMARK VINA RESULT:    -3.737     21.910     23.876
REMARK INTER + INTRA:          -5.105
REMARK INTER:                  -4.499
REMARK INTRA:                  -0.606
REMARK UNBOUND:                -0.604
REMARK SMILES CC(=O)Oc1ccccc1C(=O)O
REMARK SMILES IDX 5 1 10 2 6 3 9 4 7 5 8 6 4 7 2 8 3 9 1 10 11 11 12 12 13 13
REMARK H PARENT 13 14
ROOT
ATOM      1  C   UNL     1      21.751  19.465  22.606  1.00  0.00     0.145 A 
ATOM      2  C   UNL     1      22.908  18.742  22.219  1.00  0.00     0.102 A 
ATOM      3  C   UNL     1      20.691  19.617  21.703  1.00  0.00     0.048 A 
ATOM      4  C   UNL     1      22.992  18.247  20.904  1.00  0.00     0.019 A 
ATOM      5  C   UNL     1      20.785  19.105  20.408  1.00  0.00     0.004 A 
ATOM      6  C   UNL     1      21.937  18.431  20.005  1.00  0.00     0.001 A 
ENDROOT
BRANCH   1   7
ATOM      7  O   UNL     1      21.625  20.045  23.873  1.00  0.00    -0.426 OA
BRANCH   7   8
ATOM      8  C   UNL     1      21.430  21.417  24.064  1.00  0.00     0.308 C 
ATOM      9  O   UNL     1      20.308  21.865  24.428  1.00  0.00    -0.252 OA
ATOM     10  C   UNL     1      22.552  22.363  23.802  1.00  0.00     0.139 C 
ENDBRANCH   7   8
ENDBRANCH   1   7
BRANCH   2  11
ATOM     11  C   UNL     1      24.010  18.449  23.165  1.00  0.00     0.339 C 
ATOM     12  O   UNL     1      24.450  17.275  23.300  1.00  0.00    -0.246 OA
BRANCH  11  13
ATOM     13  O   UNL     1      24.598  19.482  23.892  1.00  0.00    -0.478 OA
ATOM     14  H   UNL     1      24.978  19.316  24.817  1.00  0.00     0.297 HD
ENDBRANCH  11  13
ENDBRANCH   2  11
TORSDOF 4
ENDMDL
MODEL 8
REMARK VINA RESULT:    -3.520      1.523      2.060
REMARK INTER + INTRA:          -4.844
REMARK INTER:                  -4.234
REMARK INTRA:                  -0.609
REMARK UNBOUND:                -0.604
REMARK SMILES CC(=O)Oc1ccccc1C(=O)O
REMARK SMILES IDX 5 1 10 2 6 3 9 4 7 5 8 6 4 7 2 8 3 9 1 10 11 11 12 12 13 13
REMARK H PARENT 13 14
ROOT
ATOM      1  C   UNL     1      35.591  40.458  20.204  1.00  0.00     0.145 A 
ATOM      2  C   UNL     1      34.413  39.689  20.017  1.00  0.00     0.102 A 
ATOM      3  C   UNL     1      36.511  40.587  19.156  1.00  0.00     0.048 A 
ATOM      4  C   UNL     1      34.228  39.016  18.796  1.00  0.00     0.019 A 
ATOM      5  C   UNL     1      36.303  39.925  17.945  1.00  0.00     0.004 A 
ATOM      6  C   UNL     1      35.169  39.132  17.768  1.00  0.00     0.001 A 
ENDROOT
BRANCH   1   7
ATOM      7  O   UNL     1      35.877  41.098  21.414  1.00  0.00    -0.426 OA
BRANCH   7   8
ATOM      8  C   UNL     1      36.471  40.444  22.499  1.00  0.00     0.308 C 
ATOM      9  O   UNL     1      35.784  40.092  23.496  1.00  0.00    -0.252 OA
ATOM     10  C   UNL     1      37.940  40.191  22.489  1.00  0.00     0.139 C 
ENDBRANCH   7   8
ENDBRANCH   1   7
BRANCH   2  11
ATOM     11  C   UNL     1      33.350  39.610  21.047  1.00  0.00     0.339 C 
ATOM     12  O   UNL     1      32.620  38.586  21.140  1.00  0.00    -0.246 OA
BRANCH  11  13
ATOM     13  O   UNL     1      33.171  40.657  21.947  1.00  0.00    -0.478 OA
ATOM     14  H   UNL     1      32.531  40.568  22.728  1.00  0.00     0.297 HD
ENDBRANCH  11  13
ENDBRANCH   2  11
TORSDOF 4
ENDMDL
MODEL 9
REMARK VINA RESULT:    -3.501     15.588     16.994
REMARK INTER + INTRA:          -4.822
REMARK INTER:                  -4.104
REMARK INTRA:                  -0.718
REMARK UNBOUND:                -0.604
REMARK SMILES CC(=O)Oc1ccccc1C(=O)O
REMARK SMILES IDX 5 1 10 2 6 3 9 4 7 5 8 6 4 7 2 8 3 9 1 10 11 11 12 12 13 13
REMARK H PARENT 13 14
ROOT
ATOM      1  C   UNL     1      24.435  38.717   7.344  1.00  0.00     0.145 A 
ATOM      2  C   UNL     1      23.688  38.161   8.414  1.00  0.00     0.102 A 
ATOM      3  C   UNL     1      24.013  38.515   6.023  1.00  0.00     0.048 A 
ATOM      4  C   UNL     1      22.571  37.359   8.118  1.00  0.00     0.019 A 
ATOM      5  C   UNL     1      22.893  37.730   5.749  1.00  0.00     0.004 A 
ATOM      6  C   UNL     1      22.178  37.144   6.794  1.00  0.00     0.001 A 
ENDROOT
BRANCH   1   7
ATOM      7  O   UNL     1      25.596  39.467   7.557  1.00  0.00    -0.426 OA
BRANCH   7   8
ATOM      8  C   UNL     1      25.631  40.862   7.453  1.00  0.00     0.308 C 
ATOM      9  O   UNL     1      25.127  41.589   8.352  1.00  0.00    -0.252 OA
ATOM     10  C   UNL     1      26.240  41.494   6.248  1.00  0.00     0.139 C 
ENDBRANCH   7   8
ENDBRANCH   1   7
BRANCH   2  11
ATOM     11  C   UNL     1      24.018  38.434   9.833  1.00  0.00     0.339 C 
ATOM     12  O   UNL     1      24.331  37.495  10.614  1.00  0.00    -0.246 OA
BRANCH  11  13
ATOM     13  O   UNL     1      24.018  39.743  10.309  1.00  0.00    -0.478 OA
ATOM     14  H   UNL     1      24.198  39.941  11.287  1.00  0.00     0.297 HD
ENDBRANCH  11  13
ENDBRANCH   2  11
TORSDOF 4
ENDMDL
