DUMMY DIFFDOCK POSE 3
  Generated by dummy DiffDock script

  9  8  0  0  0  0  0  0  0  0999 V2000
   -0.1230    1.4560    2.7890 C   0  0  0  0  0  0  0  0  0  0  0  0
    1.2340   -0.5670    3.8900 O   0  0  0  0  0  0  0  0  0  0  0  0
   -1.3450    0.6780    1.2340 N   0  0  0  0  0  0  0  0  0  0  0  0
    0.4560   -1.2340    2.5670 C   0  0  0  0  0  0  0  0  0  0  0  0
    2.1230    0.7890    1.4560 O   0  0  0  0  0  0  0  0  0  0  0  0
   -2.5670    1.8900    0.1230 N   0  0  0  0  0  0  0  0  0  0  0  0
    1.7890    0.1230   -1.4560 C   0  0  0  0  0  0  0  0  0  0  0  0
    3.4560    2.1230    0.7890 O   0  0  0  0  0  0  0  0  0  0  0  0
   -3.7890    2.4560   -0.5670 N   0  0  0  0  0  0  0  0  0  0  0  0
  1  2  1  0  0  0  0
  1  3  1  0  0  0  0
  1  4  1  0  0  0  0
  2  5  1  0  0  0  0
  3  6  1  0  0  0  0
  4  7  1  0  0  0  0
  5  8  1  0  0  0  0
  6  9  1  0  0  0  0
M  END
$$$$
